#======================================================================

# CRYSTAL DATA

#----------------------------------------------------------------------

data_VESTA_phase_1


_pd_phase_name                         'New structure'
_cell_length_a                         8.80625
_cell_length_b                         8.80625
_cell_length_c                         12.71270
_cell_angle_alpha                      90
_cell_angle_beta                       90
_cell_angle_gamma                      90
_symmetry_space_group_name_H-M         'I 4/m c m'
_symmetry_Int_Tables_number            140

loop_
_symmetry_equiv_pos_as_xyz
   'x, y, z'
   '-x, -y, -z'
   '-x, -y, z'
   'x, y, -z'
   '-y, x, z'
   'y, -x, -z'
   'y, -x, z'
   '-y, x, -z'
   '-x, y, -z+1/2'
   'x, -y, z+1/2'
   'x, -y, -z+1/2'
   '-x, y, z+1/2'
   'y, x, -z+1/2'
   '-y, -x, z+1/2'
   '-y, -x, -z+1/2'
   'y, x, z+1/2'
   'x+1/2, y+1/2, z+1/2'
   '-x+1/2, -y+1/2, -z+1/2'
   '-x+1/2, -y+1/2, z+1/2'
   'x+1/2, y+1/2, -z+1/2'
   '-y+1/2, x+1/2, z+1/2'
   'y+1/2, -x+1/2, -z+1/2'
   'y+1/2, -x+1/2, z+1/2'
   '-y+1/2, x+1/2, -z+1/2'
   '-x+1/2, y+1/2, -z'
   'x+1/2, -y+1/2, z'
   'x+1/2, -y+1/2, -z'
   '-x+1/2, y+1/2, z'
   'y+1/2, x+1/2, -z'
   '-y+1/2, -x+1/2, z'
   '-y+1/2, -x+1/2, -z'
   'y+1/2, x+1/2, z'

loop_
   _atom_site_label
   _atom_site_occupancy
   _atom_site_fract_x
   _atom_site_fract_y
   _atom_site_fract_z
   _atom_site_adp_type
   _atom_site_U_iso_or_equiv
   _atom_site_type_symbol
   1          1.0     0.500000      0.500000      0.500000     Uiso  0.021600 Pb
   2          1.0     0.201220      0.298780      0.500000     Uiso  0.046800 I
   3          1.0     0.500000      0.500000      0.750000     Uiso  0.040300 I
   4          0.2500  0.412800      0.087200      0.283300     Uiso  0.053000 N
   5          0.5000 -0.038100      0.353100      0.220300     Uiso  0.257900 H
   6          0.2500  0.527300     -0.027300      0.258800     Uiso  0.072000 C
   7          0.5000  0.429700      0.070300      0.333600     Uiso  0.155400 H
